/*--------------------------------*- C++ -*----------------------------------*\
| =========                 |                                                 |
| \\      /  F ield         | OpenFOAM: The Open Source CFD Toolbox           |
<<<<<<< HEAD
|  \\    /   O peration     | Version:  3.0.x                                 |
=======
|  \\    /   O peration     | Version:  4.x                                   |
>>>>>>> 90e2f8d87bcd3a8588545c2de68a62d5b5c54a99
|   \\  /    A nd           | Web:      www.OpenFOAM.org                      |
|    \\/     M anipulation  |                                                 |
\*---------------------------------------------------------------------------*/
FoamFile
{
    version     2.0;
    format      ascii;
    class       dictionary;
    location    "constant";
    object      thermophysicalProperties.liquid;
}
// * * * * * * * * * * * * * * * * * * * * * * * * * * * * * * * * * * * * * //

thermoType
{
    type            heRhoThermo;
    mixture         multiComponentMixture;
    transport       const;
    thermo          hConst;
    equationOfState perfectFluid;
    specie          specie;
    energy          sensibleInternalEnergy;
}

species
(
    air
    water
);

inertSpecie water;

"(mixture|water)"
{
    specie
    {
        nMoles      1;
        molWeight   18.0153;
    }
    equationOfState
    {
        R           3000;
        rho0        1027;
    }
    thermodynamics
    {
        Hf          -1.5879e+07;
        Cp          4195;
    }
    transport
    {
        mu          3.645e-4;
        Pr          2.289;
    }
}

air
{
    specie
    {
        nMoles      1;
        molWeight   28.9;
    }
    equationOfState
    {
        R           3000;
        rho0        1027;
    }
    thermodynamics
    {
        Hf          0;
        Cp          4195;
    }
    transport
    {
        mu          3.645e-4;
        Pr          2.289;
    }
}


// ************************************************************************* //
